[TITLE]


[JUNCTIONS]
;ID              	Elev        	Demand      	Pattern         
 N1              	628         	0.19658517  	                	;
 N2              	627         	0.18479006  	                	;
 N3              	627         	0.18085836  	                	;
 N4              	597         	2.17816369  	                	;
 N5              	593         	2.92125564  	                	;
 N6              	583         	1.28566702  	                	;
 N7              	614         	3.9670      	                	;
 N8              	603         	2.74432899  	                	;
 N9              	594         	2.8780069   	                	;
 N10             	580         	2.09166622  	                	;
 N11             	581         	19.6545854  	                	;
 N12             	582         	0.21231198  	                	;
 N13             	580         	9.2041177   	                	;
 N14             	601         	1.35250598  	                	;
 N15             	600         	0.3499216   	                	;
 N16             	594         	0.9200186   	                	;
 N17             	604         	2.96057267  	                	;
 N18             	582         	4.87924394  	                	;
 N19             	593         	9.21984452  	                	;
 N20             	605         	1.65131544  	                	;
 N21             	614         	22.18       	                	;
 N22             	614         	3.22        	                	;
 N23             	576         	0.00786341  	                	;
 N24             	627         	0.12581451  	                	;
 N25             	627         	0.04718044  	                	;
 N26             	626         	0.02752192  	                	;
 N27             	597         	16.9888905  	                	;
 N28             	581         	4.87924394  	                	;
 N29             	587         	1.69849588  	                	;
 N30             	583         	6.9040712   	                	;
 N31             	593         	8.02067497  	                	;
 N40             	583         	4.87924394  	                	;
 N41             	594         	12.7426508  	                	;
 N42             	591         	5.55156523  	                	;
 N43             	588         	0.9200186   	                	;
 N44             	592         	0.48753122  	                	;
 N45             	601         	0.84138453  	                	;
 N46             	606         	0.87676986  	                	;
 N47             	597         	4.7730      	                	;
 N48             	598         	0.0943      	                	;
 N49             	601         	0.9632      	                	;
 N50             	601         	13.6115     	                	;
 N51             	603         	9.5186      	                	;
 N52             	615         	0.0825      	                	;
 N54             	613         	4.8910      	                	;
 N55             	620         	0.9082      	                	;
 N56             	613         	4.8949      	                	;
 N57             	610         	0.0904      	                	;
 N58             	585         	22.2809     	                	;
 N59             	602         	4.89497076  	                	;
 N60             	603         	9.4950      	                	;
 N61             	612         	8.8266      	                	;
 N62             	612         	0.4403      	                	;
 N63             	606         	9.6130      	                	;
 N64             	601         	48.93       	                	;
 N65             	601         	0.92        	                	;
 N66             	610         	3.0077      	                	;
 N67             	609         	2.5831      	                	;
 N68             	602         	5.3274      	                	;
 N69             	602         	0.4875      	                	;
 N70             	606         	9.2041      	                	;
 N71             	607         	1.7810      	                	;
 N72             	607         	2.2646      	                	;
 N73             	615         	4.8831      	                	;
 N74             	615         	4.88317565  	                	;
 N75             	614         	2.6067      	                	;
 N76             	624         	0.7981      	                	;
 N77             	625         	0.4835      	                	;
 N78             	619         	0.0078      	                	;
 N79             	609         	1.3525      	                	;
 N80             	603         	1.3407      	                	;
 N81             	596         	5.6301      	                	;
 N82             	594         	4.8438      	                	;
 N83             	592         	1.2345      	                	;
 N84             	591         	0.9711      	                	;
 N85             	582         	5.3156      	                	;
 N86             	581         	2.1309      	                	;
 N87             	581         	4.8910      	                	;
 N88             	594         	9.2512      	                	;
 N89             	595         	9.2080      	                	;
 N90             	594         	6.4558      	                	;
 N91             	594         	4.8595      	                	;
 N92             	594         	5.0679      	                	;
 N93             	606         	10.5173     	                	;
 N94             	606         	7.0338      	                	;
 N95             	608         	3.8884      	                	;
 N96             	604         	1.4036      	                	;
 N97             	603         	4.9106      	                	;
 N98             	601         	0.9239      	                	;
 N99             	610         	1.0930      	                	;
 N100            	610         	0.1494      	                	;
 N101            	609         	0.8374      	                	;
 N102            	589         	5.3117      	                	;
 N103            	593         	4.8910      	                	;
 N104            	590         	3.0038      	                	;
 N105            	592         	0.8295      	                	;
 N106            	582         	4.8438      	                	;
 N107            	582         	9.2591      	                	;
 N108            	580         	6.1137      	                	;
 N109            	582         	17.0714     	                	;
 N110            	581         	9.0979      	                	;
 N111            	584         	9.2198      	                	;
 N112            	588         	5.2763      	                	;
 N113            	589         	7.3640      	                	;
 N114            	587         	1.3446      	                	;
 N115            	601         	0.8256      	                	;
 N116            	594         	0.8020      	                	;
 N117            	613         	4.8910      	                	;
 N118            	615         	3.0352      	                	;
 N119            	610         	5.2881      	                	;
 N120            	601         	2.1349      	                	;
 N121            	605         	9.9629      	                	;
 N122            	595         	3.5699      	                	;
 N123            	591         	1.4036      	                	;
 N124            	592         	3.0942      	                	;
 N125            	576         	3.0077      	                	;
 N126            	576         	2.9605      	                	;
 N127            	576         	3.5267      	                	;
 N128            	611         	0.3813      	                	;
 N129            	596         	0.9239      	                	;
 N130            	627         	0.2673      	                	;
 N131            	610         	0.5936      	                	;
 N132            	597         	1.3446      	                	;
 N133            	585         	8.2487      	                	;
 N134            	593         	9.2198      	                	;
 N135            	596         	9.0468      	                	;
 N136            	605         	25.6465     	                	;
 N137            	611         	0.9239      	                	;
 N138            	594         	5.1898      	                	;
 N139            	596         	4.7337      	                	;
 N140            	582         	9.4518      	                	;
 N141            	596         	12.3494     	                	;
 N142            	581         	4.8792      	                	;
 N143            	582         	0.9711      	                	;
 N144            	615         	10.0101     	                	;
 N145            	615         	9.1372      	                	;
 N146            	614         	8.6300      	                	;
 N147            	610         	3.5699      	                	;
 N148            	610         	4.8792      	                	;
 N149            	601         	9.1765      	                	;
 N150            	597         	5.5397      	                	;
 N151            	592         	1.2738      	                	;
 N152            	607         	3.8805      	                	;
 N153            	611         	1.1873      	                	;
 N154            	606         	0.9082      	                	;
 N155            	606         	0.92001     	                	;
 N156            	604         	0.7745      	                	;
 N157            	506         	0.9671      	                	;
 N158            	602         	7.8830      	                	;
 N159            	605         	1.2738      	                	;
 N160            	597         	0.8807      	                	;
 N161            	590         	9.6562      	                	;
 N162            	601         	5.1977      	                	;
 N163            	604         	8.0324      	                	;
 N164            	619         	0.2201      	                	;
 N165            	595         	7.9105      	                	;
 N166            	604         	0.4875      	                	;
 N167            	589         	2.8740      	                	;
 N168            	608         	9.4911      	                	;
 N169            	604         	0.9082      	                	;
 N170            	585         	9.2355      	                	;
 N171            	594         	4.7377      	                	;
 N172            	587         	3.5699      	                	;
 N173            	590         	1.7378      	                	;
 N174            	593         	4.5293      	                	;
 N175            	592         	9.3928      	                	;
 N176            	593         	5.3077      	                	;
 N177            	598         	8.2565      	                	;
 N178            	584         	4.9264      	                	;
 N179            	584         	0.0904      	                	;
 N180            	594         	1.0065      	                	;
 N181            	596         	4.8006      	                	;
 N182            	595         	0.92001     	                	;
 N183            	596         	0.4010      	                	;
 N184            	599         	0.9082      	                	;
 N185            	615         	0.4364      	                	;

[RESERVOIRS]
;ID              	Head        	Pattern         
 UsineMvila      	579         	1               	;

[TANKS]
;ID              	Elevation   	InitLevel   	MinLevel    	MaxLevel    	Diameter    	MinVol      	VolCurve        	Overflow
 Vidange         	584         	5           	1           	20          	50          	0           	                	;
 Reservoir       	3779        	2           	0.25        	10          	50          	0           	                	;

[PIPES]
;ID              	Node1           	Node2           	Length      	Diameter    	Roughness   	MinorLoss   	Status
 N1-N2           	N1              	N2              	70          	200         	0.0015      	0.1         	Open  	;
 N2-N78          	N2              	N78             	20          	200         	0.0015      	0.1         	Open  	;
 N78-N131        	N78             	N131            	260         	200         	0.0015      	0.1         	Open  	;
 N131-132        	N131            	N132            	300         	200         	0.0015      	0.1         	Open  	;
 N132-N4         	N132            	N4              	30          	110         	0.0015      	0.1         	Open  	;
 N2-N77          	N2              	N77             	20          	160         	0.0015      	0.1         	Open  	;
 N77-N79         	N77             	N79             	110         	160         	0.0015      	0.1         	Open  	;
 N79-N80         	N79             	N80             	140         	90          	0.0015      	0.1         	Open  	;
 N80-N8          	N80             	N8              	70          	60          	0.0015      	0.1         	Open  	;
 N80-N9          	N80             	N9              	150         	90          	0.0015      	0.1         	Open  	;
 N76-N77         	N76             	N77             	100         	160         	0.0015      	0.1         	Open  	;
 N79-N81         	N79             	N81             	310         	160         	0.0015      	0.1         	Open  	;
 N81-N5          	N81             	N5              	60          	200         	0.0015      	0.1         	Open  	;
 N82-N5          	N82             	N5              	20          	110         	0.0015      	0.1         	Open  	;
 N82-N83         	N82             	N83             	160         	110         	0.0015      	0.1         	Open  	;
 N83-N84         	N83             	N84             	10          	110         	0.0015      	0.1         	Open  	;
 N85-N84         	N85             	N82             	280         	110         	0.0015      	0.1         	Open  	;
 N86-N11         	N86             	N11             	260         	110         	0.0015      	0.1         	Open  	;
 N85-N86         	N85             	N86             	10          	110         	0.0015      	0.1         	Open  	;
 N88-N90         	N88             	N90             	20          	110         	0.0015      	0.1         	Open  	;
 N90-N91         	N90             	N91             	80          	110         	0.0015      	0.1         	Open  	;
 N112-N91        	N112            	N91             	360         	90          	0.0015      	0.1         	Open  	;
 N90-N113        	N90             	N113            	380         	90          	0.0015      	0.1         	Open  	;
 N93-N113        	N93             	N113            	280         	90          	0.0015      	0.1         	Open  	;
 N113-N112       	N113            	N112            	20          	90          	0.0015      	0.1         	Open  	;
 N112-N111       	N112            	N111            	40          	90          	0.0015      	0.1         	Open  	;
 N94-N165        	N94             	N165            	410         	90          	0.0015      	0.1         	Open  	;
 N111-N92        	N111            	N92             	390         	110         	0.0015      	0.1         	Open  	;
 N92-N87         	N92             	N87             	250         	110         	0.0015      	0.1         	Open  	;
 N11-N88         	N11             	N88             	190         	110         	0.0015      	0.1         	Open  	;
 N89-N93         	N89             	N93             	290         	110         	0.0015      	0.1         	Open  	;
 N89-N88         	N89             	N88             	10          	110         	0.0015      	0.1         	Open  	;
 N93-N94         	N93             	N94             	20          	110         	0.0015      	0.1         	Open  	;
 N95-N96         	N95             	N96             	340         	90          	0.0015      	0.1         	Open  	;
 N76-N166        	N76             	N166            	910         	160         	0.0015      	0.1         	Open  	;
 N97-N99         	N97             	N99             	550         	90          	0.0015      	0.1         	Open  	;
 N97-N98         	N97             	N98             	20          	60          	0.0015      	0.1         	Open  	;
 N97-N96         	N97             	N96             	30          	90          	0.0015      	0.1         	Open  	;
 N101-N102       	N101            	N102            	320         	60          	0.0015      	0.1         	Open  	;
 N101-N99        	N101            	N99             	10          	60          	0.0015      	0.1         	Open  	;
 N102-N103       	N102            	N103            	170         	60          	0.0015      	0.1         	Open  	;
 N103-N104       	N103            	N104            	90          	60          	0.0015      	0.1         	Open  	;
 N104-N102       	N104            	N102            	250         	60          	0.0015      	0.1         	Open  	;
 N99-N102        	N99             	N102            	310         	60          	0.0015      	0.1         	Open  	;
 N2-N130         	N2              	N130            	100         	160         	0.0015      	0.1         	Open  	;
 N26-N25         	N26             	N25             	20          	110         	0.0015      	0.1         	Open  	;
 N130-N24        	N130            	N24             	30          	110         	0.0015      	0.1         	Open  	;
 N3-N24          	N3              	N24             	10          	110         	0.0015      	0.1         	Open  	;
 N3-N25          	N3              	N25             	10          	110         	0.0015      	0.1         	Open  	;
 N131-N27        	N131            	N27             	370         	110         	0.0015      	0.1         	Open  	;
 N3-N4           	N3              	N4              	730         	110         	0.0015      	0.1         	Open  	;
 N133-N48        	N133            	N48             	1170        	160         	0.0015      	0.1         	Open  	;
 N48-N49         	N48             	N49             	140         	160         	0.0015      	0.1         	Open  	;
 N49-N168        	N49             	N168            	570         	90          	0.0015      	0.1         	Open  	;
 N49-N50         	N49             	N50             	420         	160         	0.0015      	0.1         	Open  	;
 N50-N51         	N50             	N51             	620         	160         	0.0015      	0.1         	Open  	;
 N51-N52         	N51             	N52             	190         	160         	0.0015      	0.1         	Open  	;
 N52-N137        	N52             	N137            	150         	160         	0.0015      	0.1         	Open  	;
 N52-N54         	N52             	N54             	170         	160         	0.0015      	0.1         	Open  	;
 N54-N55         	N54             	N55             	1050        	160         	0.0015      	0.1         	Open  	;
 N55-N56         	N55             	N56             	380         	160         	0.0015      	0.1         	Open  	;
 N56-N169        	N56             	N169            	310         	90          	0.0015      	0.1         	Open  	;
 N56-N57         	N56             	N57             	330         	160         	0.0015      	0.1         	Open  	;
 N26-N170        	N26             	N170            	720         	160         	0.0015      	0.1         	Open  	;
 N170-N43        	N170            	N43             	200         	90          	0.0015      	0.1         	Open  	;
 N170-N133       	N170            	N133            	160         	160         	00015       	0.1         	Open  	;
 N43-N42         	N43             	N42             	260         	110         	0.0015      	0.1         	Open  	;
 N42-N134        	N42             	N134            	70          	110         	0.0015      	0.1         	Open  	;
 N134-N135       	N134            	N135            	70          	110         	0.0015      	0.1         	Open  	;
 N171-N43        	N171            	N43             	330         	110         	0.0015      	0.1         	Open  	;
 N134-N171       	N134            	N171            	10          	110         	0.0015      	0.1         	Open  	;
 N171-N45        	N171            	N45             	110         	90          	0.0015      	0.1         	Open  	;
 N45-N44         	N45             	N44             	130         	90          	0.0015      	0.1         	Open  	;
 N44-N172        	N44             	N172            	140         	90          	0.0015      	0.1         	Open  	;
 N45-N136        	N45             	N136            	210         	90          	0.0015      	0.1         	Open  	;
 N136-N46        	N136            	N46             	136         	60          	0.0015      	0.1         	Open  	;
 N46-N47         	N46             	N47             	480         	60          	0.0015      	0.1         	Open  	;
 N135-N41        	N135            	N41             	120         	60          	0.0015      	0.1         	Open  	;
 N41-N40         	N41             	N40             	200         	90          	0.0015      	0.1         	Open  	;
 N40-N173        	N40             	N173            	600         	90          	0.0015      	0.1         	Open  	;
 N40-N30         	N40             	N30             	550         	90          	0.0015      	0.1         	Open  	;
 N30-N38         	N30             	N138            	180         	90          	0.0015      	0.1         	Open  	;
 N138-N174       	N138            	N174            	50          	90          	0.0015      	0.1         	Open  	;
 N138-N139       	N138            	N139            	190         	90          	0.0015      	0.1         	Open  	;
 N139-N175       	N139            	N175            	110         	90          	0.0015      	0.1         	Open  	;
 N139-N131       	N139            	N31             	140         	90          	0.0015      	0.1         	Open  	;
 N131-N176       	N31             	N176            	540         	110         	0.0015      	0.1         	Open  	;
 N170-N25        	N170            	N25             	970         	110         	0.0015      	0.1         	Open  	;
 N131-N177       	N31             	N177            	490         	90          	0.0015      	0.1         	Open  	;
 N177-N178       	N177            	N178            	520         	90          	0.0015      	0.1         	Open  	;
 N30-N140        	N30             	N140            	640         	90          	0.0015      	0.1         	Open  	;
 N140-Vidange    	N140            	Vidange         	140         	90          	0.0015      	0.1         	Open  	;
 N140-N141       	N140            	N141            	600         	90          	0.0015      	0.1         	Open  	;
 N30-N29         	N30             	N29             	400         	90          	0.0015      	0.1         	Open  	;
 N29-N28         	N29             	N28             	460         	90          	0.0015      	0.1         	Open  	;
 N177-N27        	N177            	N27             	140         	90          	0.0015      	0.1         	Open  	;
 N27-N179        	N27             	N179            	250         	60          	0.0015      	0.1         	Open  	;
 N28-N180        	N28             	N180            	470         	90          	0.0015      	0.1         	Open  	;
 N180-N28        	N180            	N27             	320         	90          	0.0015      	0.1         	Open  	;
 N128-N23        	N128            	N23             	750         	90          	0.0015      	0.1         	Open  	;
 N23-N126        	N23             	N126            	150         	90          	0.0015      	0.1         	Open  	;
 N126-N127       	N126            	N127            	10          	90          	0.0015      	0.1         	Open  	;
 N126-N125       	N126            	N125            	30          	90          	0.0015      	0.1         	Open  	;
 N125-N120       	N125            	N120            	400         	200         	0.0015      	0.1         	Open  	;
 N120-N124       	N120            	N124            	280         	90          	0.0015      	0.1         	Open  	;
 N124-N123       	N124            	N123            	20          	90          	0.0015      	0.1         	Open  	;
 N124-N122       	N124            	N122            	60          	90          	0.0015      	0.1         	Open  	;
 N121-N122       	N121            	N122            	230         	90          	0.0015      	0.1         	Open  	;
 N121-N17        	N121            	N17             	90          	90          	0.0015      	0.1         	Open  	;
 N17-N120        	N17             	N120            	110         	90          	0.0015      	0.1         	Open  	;
 N17-N117        	N17             	N117            	330         	200         	0.0015      	0.1         	Open  	;
 N117-N118       	N117            	N118            	20          	110         	0.0015      	0.1         	Open  	;
 N118-N119       	N118            	N119            	160         	110         	0.0015      	0.1         	Open  	;
 N119-N148       	N119            	N148            	200         	90          	0.0015      	0.1         	Open  	;
 N118-N74        	N118            	N74             	100         	110         	0.0015      	0.1         	Open  	;
 N74-N144        	N74             	N144            	510         	90          	0.0015      	0.1         	Open  	;
 N145-N73        	N145            	N73             	340         	200         	0.0015      	0.1         	Open  	;
 N20-N21         	N20             	N21             	320         	200         	0.0015      	0.1         	Open  	;
 N21-N146        	N21             	N146            	40          	200         	0.0015      	0.1         	Open  	;
 N117-N116       	N117            	N116            	720         	200         	0.0015      	0.1         	Open  	;
 N14-N115        	N14             	N115            	70          	160         	0.0015      	0.1         	Open  	;
 N115-N15        	N115            	N15             	200         	160         	0.0015      	0.1         	Open  	;
 N15-N129        	N15             	N129            	150         	110         	0.0015      	0.1         	Open  	;
 N15-N114        	N15             	N114            	510         	110         	0.0015      	0.1         	Open  	;
 N114-N13        	N114            	N13             	120         	110         	0.0015      	0.1         	Open  	;
 N114-N12        	N114            	N12             	100         	110         	0.0015      	0.1         	Open  	;
 N116-N115       	N116            	N115            	450         	110         	0.0015      	0.1         	Open  	;
 N14-N110        	N14             	N110            	380         	160         	0.0015      	0.1         	Open  	;
 N116-N19        	N116            	N19             	20          	110         	0.0015      	0.1         	Open  	;
 N19-N6          	N19             	N6              	180         	200         	0.0015      	0.1         	Open  	;
 N6-N110         	N6              	N110            	80          	200         	0.0015      	0.1         	Open  	;
 N6-N18          	N6              	N18             	10          	110         	0.0015      	0.1         	Open  	;
 N18-N109        	N18             	N109            	30          	110         	0.0015      	0.1         	Open  	;
 N110-N108       	N110            	N108            	540         	200         	0.0015      	0.1         	Open  	;
 N109-N20        	N109            	N20             	520         	110         	0.0015      	0.1         	Open  	;
 N108-N10        	N108            	N10             	850         	90          	0.0015      	0.1         	Open  	;
 N10-N86         	N10             	N86             	20          	90          	0.0015      	0.1         	Open  	;
 N5-N108         	N5              	N108            	550         	200         	0.0015      	0.1         	Open  	;
 N105-N109       	N105            	N109            	1140        	110         	0.0015      	0.1         	Open  	;
 N105-N142       	N105            	N142            	780         	110         	0.0015      	0.1         	Open  	;
 N142-N143       	N142            	N143            	90          	60          	0.0015      	0.1         	Open  	;
 N142-N58        	N142            	N58             	70          	110         	0.0015      	0.1         	Open  	;
 N143-N158       	N143            	N158            	580         	90          	0.0015      	0.1         	Open  	;
 N158-N59        	N158            	N59             	10          	90          	0.0015      	0.1         	Open  	;
 N59-N60         	N59             	N60             	60          	90          	0.0015      	0.1         	Open  	;
 N58-N157        	N58             	N157            	310         	110         	0.0015      	0.1         	Open  	;
 N157-N156       	N157            	N156            	210         	110         	0.0015      	0.1         	Open  	;
 N59-N155        	N59             	N155            	200         	110         	0.0015      	0.1         	Open  	;
 N154-155        	N155            	N154            	30          	90          	0.0015      	0.1         	Open  	;
 N156-N29        	N156            	N29             	780         	90          	0.0015      	0.1         	Open  	;
 N163-N67        	N163            	N67             	350         	90          	0.0015      	0.1         	Open  	;
 N67-N64         	N67             	N64             	270         	90          	0.0015      	0.1         	Open  	;
 N66-N162        	N66             	N162            	260         	110         	0.0015      	0.1         	Open  	;
 N162-N62        	N162            	N62             	380         	90          	0.0015      	0.1         	Open  	;
 N62-N61         	N62             	N61             	20          	90          	0.0015      	0.1         	Open  	;
 N61-N153        	N61             	N153            	10          	90          	0.0015      	0.1         	Open  	;
 N153-N152       	N153            	N152            	70          	110         	0.0015      	0.1         	Open  	;
 N152-N151       	N152            	N151            	450         	110         	0.0015      	0.1         	Open  	;